data_image0
_cell_length_a       9.73092
_cell_length_b       11.2363
_cell_length_c       10.3891
_cell_angle_alpha    90
_cell_angle_beta     90
_cell_angle_gamma    90

_symmetry_space_group_name_H-M    "P 1"
_symmetry_int_tables_number       1

loop_
  _symmetry_equiv_pos_as_xyz
  'x, y, z'

loop_
  _atom_site_label
  _atom_site_occupancy
  _atom_site_fract_x
  _atom_site_fract_y
  _atom_site_fract_z
  _atom_site_thermal_displace_type
  _atom_site_B_iso_or_equiv
  _atom_site_type_symbol
  Zn1      1.0000 0.00000  0.33369  0.25187  Biso   1.000  Zn
  Zn2      1.0000 0.00000  0.33302  0.74847  Biso   1.000  Zn
  Zn3      1.0000 0.00000  0.83433  0.25234  Biso   1.000  Zn
  Zn4      1.0000 0.00000  0.83331  0.75287  Biso   1.000  Zn
  Zn5      1.0000 0.33692  0.33414  0.25047  Biso   1.000  Zn
  Zn6      1.0000 0.33504  0.33327  0.74305  Biso   1.000  Zn
  Zn7      1.0000 0.33290  0.83237  0.25293  Biso   1.000  Zn
  Zn8      1.0000 0.33278  0.83482  0.75112  Biso   1.000  Zn
  Zn9      1.0000 0.66245  0.33450  0.25152  Biso   1.000  Zn
  Zn10     1.0000 0.66568  0.33316  0.74424  Biso   1.000  Zn
  Zn11     1.0000 0.66699  0.83578  0.24778  Biso   1.000  Zn
  Zn12     1.0000 0.66703  0.83714  0.75636  Biso   1.000  Zn
  Zn13     1.0000 0.00000  0.16748  0.00000  Biso   1.000  Zn
  Zn14     1.0000 0.00000  0.16864  0.49842  Biso   1.000  Zn
  Zn15     1.0000 0.00000  0.66671  0.00000  Biso   1.000  Zn
  Zn16     1.0000 0.00000  0.66700  0.50316  Biso   1.000  Zn
  Zn17     1.0000 0.33305  0.16677  0.00000  Biso   1.000  Zn
  Zn18     1.0000 0.33451  0.17017  0.49803  Biso   1.000  Zn
  Zn19     1.0000 0.33121  0.66796  0.00000  Biso   1.000  Zn
  Zn20     1.0000 0.32804  0.66581  0.50113  Biso   1.000  Zn
  Zn21     1.0000 0.66671  0.16645  0.00000  Biso   1.000  Zn
  Zn22     1.0000 0.66405  0.17220  0.49792  Biso   1.000  Zn
  Zn23     1.0000 0.66698  0.66693  0.00000  Biso   1.000  Zn
  In1      1.0000 0.66164  0.65977  0.49706  Biso   1.000  In
  Zn24     1.0000 0.16727  0.41555  0.00000  Biso   1.000  Zn
  Zn25     1.0000 0.17381  0.41556  0.49839  Biso   1.000  Zn
  Zn26     1.0000 0.16663  0.91759  0.00000  Biso   1.000  Zn
  Zn27     1.0000 0.16541  0.91704  0.50176  Biso   1.000  Zn
  Zn28     1.0000 0.49997  0.41427  0.00000  Biso   1.000  Zn
  Zn29     1.0000 0.49868  0.91743  0.00000  Biso   1.000  Zn
  Zn30     1.0000 0.49675  0.91942  0.50120  Biso   1.000  Zn
  Zn31     1.0000 0.83336  0.41377  0.00000  Biso   1.000  Zn
  Zn32     1.0000 0.83391  0.40932  0.49970  Biso   1.000  Zn
  Zn33     1.0000 0.83508  0.91811  0.00000  Biso   1.000  Zn
  Zn34     1.0000 0.83647  0.92123  0.50287  Biso   1.000  Zn
  Zn35     1.0000 0.16830  0.08530  0.25206  Biso   1.000  Zn
  Zn36     1.0000 0.16648  0.08397  0.74983  Biso   1.000  Zn
  Zn37     1.0000 0.16721  0.58176  0.25032  Biso   1.000  Zn
  Zn38     1.0000 0.16723  0.58219  0.74973  Biso   1.000  Zn
  Zn39     1.0000 0.49943  0.08499  0.25027  Biso   1.000  Zn
  Zn40     1.0000 0.50012  0.08473  0.74889  Biso   1.000  Zn
  Zn41     1.0000 0.49510  0.57703  0.24270  Biso   1.000  Zn
  Zn42     1.0000 0.49533  0.58253  0.75449  Biso   1.000  Zn
  Zn43     1.0000 0.83266  0.08685  0.25234  Biso   1.000  Zn
  Zn44     1.0000 0.83376  0.08475  0.74994  Biso   1.000  Zn
  Zn45     1.0000 0.83701  0.57983  0.24471  Biso   1.000  Zn
  Zn46     1.0000 0.83581  0.58046  0.75610  Biso   1.000  Zn
  O1       1.0000 0.00000  0.33399  0.42265  Biso   1.000  O
  O2       1.0000 0.00000  0.33285  0.92045  Biso   1.000  O
  O3       1.0000 0.00000  0.83258  0.42481  Biso   1.000  O
  O4       1.0000 0.00000  0.83347  0.92459  Biso   1.000  O
  O5       1.0000 0.31871  0.32464  0.41297  Biso   1.000  O
  O6       1.0000 0.32923  0.33080  0.91976  Biso   1.000  O
  O7       1.0000 0.33161  0.83509  0.42491  Biso   1.000  O
  O8       1.0000 0.33261  0.83514  0.92287  Biso   1.000  O
  O9       1.0000 0.68098  0.32828  0.41481  Biso   1.000  O
  O10      1.0000 0.67095  0.33049  0.92053  Biso   1.000  O
  O11      1.0000 0.66844  0.83902  0.42294  Biso   1.000  O
  O12      1.0000 0.66751  0.83430  0.92725  Biso   1.000  O
  O13      1.0000 0.00000  0.16665  0.17257  Biso   1.000  O
  O14      1.0000 0.00000  0.16629  0.67173  Biso   1.000  O
  O15      1.0000 0.00000  0.66807  0.17339  Biso   1.000  O
  O16      1.0000 0.00000  0.66672  0.67467  Biso   1.000  O
  O17      1.0000 0.33365  0.16464  0.16901  Biso   1.000  O
  O18      1.0000 0.33277  0.16416  0.67148  Biso   1.000  O
  O19      1.0000 0.32997  0.66805  0.17041  Biso   1.000  O
  O20      1.0000 0.33244  0.66881  0.67344  Biso   1.000  O
  O21      1.0000 0.66608  0.16487  0.17023  Biso   1.000  O
  O22      1.0000 0.66748  0.16461  0.67137  Biso   1.000  O
  O23      1.0000 0.66844  0.66658  0.17866  Biso   1.000  O
  O24      1.0000 0.66776  0.66792  0.67928  Biso   1.000  O
  O25      1.0000 0.16611  0.41746  0.16924  Biso   1.000  O
  O26      1.0000 0.16578  0.41727  0.67162  Biso   1.000  O
  O27      1.0000 0.16679  0.91674  0.17430  Biso   1.000  O
  O28      1.0000 0.16543  0.91587  0.67404  Biso   1.000  O
  O29      1.0000 0.50009  0.41436  0.15991  Biso   1.000  O
  O30      1.0000 0.50076  0.41838  0.70235  Biso   1.000  O
  O31      1.0000 0.49911  0.91589  0.17394  Biso   1.000  O
  O32      1.0000 0.50098  0.91531  0.67338  Biso   1.000  O
  O33      1.0000 0.83499  0.41503  0.17020  Biso   1.000  O
  O34      1.0000 0.83507  0.41765  0.67231  Biso   1.000  O
  O35      1.0000 0.83453  0.91786  0.17458  Biso   1.000  O
  O36      1.0000 0.83360  0.91570  0.67475  Biso   1.000  O
  O37      1.0000 0.16548  0.08070  0.42325  Biso   1.000  O
  O38      1.0000 0.16544  0.08262  0.92193  Biso   1.000  O
  O39      1.0000 0.16391  0.58401  0.42206  Biso   1.000  O
  O40      1.0000 0.16593  0.58390  0.92134  Biso   1.000  O
  O41      1.0000 0.50029  0.08252  0.42205  Biso   1.000  O
  O42      1.0000 0.50018  0.08235  0.92102  Biso   1.000  O
  O43      1.0000 0.48672  0.59509  0.40854  Biso   1.000  O
  O44      1.0000 0.50019  0.58851  0.92777  Biso   1.000  O
  O45      1.0000 0.83466  0.08389  0.42366  Biso   1.000  O
  O46      1.0000 0.83457  0.08291  0.92211  Biso   1.000  O
  O47      1.0000 0.84142  0.58029  0.42004  Biso   1.000  O
  O48      1.0000 0.83346  0.58396  0.92658  Biso   1.000  O
