data_image0
_cell_length_a       9.73092
_cell_length_b       11.2363
_cell_length_c       10.3891
_cell_angle_alpha    90
_cell_angle_beta     90
_cell_angle_gamma    90

_symmetry_space_group_name_H-M    "P 1"
_symmetry_int_tables_number       1

loop_
  _symmetry_equiv_pos_as_xyz
  'x, y, z'

loop_
  _atom_site_label
  _atom_site_occupancy
  _atom_site_fract_x
  _atom_site_fract_y
  _atom_site_fract_z
  _atom_site_thermal_displace_type
  _atom_site_B_iso_or_equiv
  _atom_site_type_symbol
  Zn1      1.0000 0.00000  0.33333  0.25000  Biso   1.000  Zn
  Zn2      1.0000 0.00000  0.33333  0.75000  Biso   1.000  Zn
  Zn3      1.0000 0.00000  0.83333  0.25000  Biso   1.000  Zn
  Zn4      1.0000 0.00000  0.83333  0.75000  Biso   1.000  Zn
  Zn5      1.0000 0.33333  0.33333  0.25000  Biso   1.000  Zn
  Zn6      1.0000 0.33333  0.33333  0.75000  Biso   1.000  Zn
  Zn7      1.0000 0.33333  0.83333  0.25000  Biso   1.000  Zn
  Zn8      1.0000 0.33333  0.83333  0.75000  Biso   1.000  Zn
  Zn9      1.0000 0.66667  0.33333  0.25000  Biso   1.000  Zn
  Zn10     1.0000 0.66667  0.33333  0.75000  Biso   1.000  Zn
  Zn11     1.0000 0.66667  0.83333  0.25000  Biso   1.000  Zn
  Zn12     1.0000 0.66667  0.83333  0.75000  Biso   1.000  Zn
  Zn13     1.0000 0.00000  0.16667  0.00000  Biso   1.000  Zn
  Zn14     1.0000 0.00000  0.16667  0.50000  Biso   1.000  Zn
  Zn15     1.0000 0.00000  0.66667  0.00000  Biso   1.000  Zn
  Zn16     1.0000 0.00000  0.66667  0.50000  Biso   1.000  Zn
  Zn17     1.0000 0.33333  0.16667  0.00000  Biso   1.000  Zn
  Zn18     1.0000 0.33333  0.16667  0.50000  Biso   1.000  Zn
  Zn19     1.0000 0.33333  0.66667  0.00000  Biso   1.000  Zn
  Zn20     1.0000 0.33333  0.66667  0.50000  Biso   1.000  Zn
  Zn21     1.0000 0.66667  0.16667  0.00000  Biso   1.000  Zn
  Zn22     1.0000 0.66667  0.16667  0.50000  Biso   1.000  Zn
  Zn23     1.0000 0.66667  0.66667  0.00000  Biso   1.000  Zn
  Zn24     1.0000 0.66667  0.66667  0.50000  Biso   1.000  Zn
  Zn25     1.0000 0.16667  0.41667  0.00000  Biso   1.000  Zn
  Zn26     1.0000 0.16667  0.41667  0.50000  Biso   1.000  Zn
  Zn27     1.0000 0.16667  0.91667  0.00000  Biso   1.000  Zn
  Zn28     1.0000 0.16667  0.91667  0.50000  Biso   1.000  Zn
  Zn29     1.0000 0.50000  0.41667  0.00000  Biso   1.000  Zn
  Zn30     1.0000 0.50000  0.41667  0.50000  Biso   1.000  Zn
  Zn31     1.0000 0.50000  0.91667  0.00000  Biso   1.000  Zn
  Zn32     1.0000 0.50000  0.91667  0.50000  Biso   1.000  Zn
  Zn33     1.0000 0.83333  0.41667  0.00000  Biso   1.000  Zn
  Zn34     1.0000 0.83333  0.41667  0.50000  Biso   1.000  Zn
  Zn35     1.0000 0.83333  0.91667  0.00000  Biso   1.000  Zn
  Zn36     1.0000 0.83333  0.91667  0.50000  Biso   1.000  Zn
  Zn37     1.0000 0.16667  0.08333  0.25000  Biso   1.000  Zn
  Zn38     1.0000 0.16667  0.08333  0.75000  Biso   1.000  Zn
  Zn39     1.0000 0.16667  0.58333  0.25000  Biso   1.000  Zn
  Zn40     1.0000 0.16667  0.58333  0.75000  Biso   1.000  Zn
  Zn41     1.0000 0.50000  0.08333  0.25000  Biso   1.000  Zn
  Zn42     1.0000 0.50000  0.08333  0.75000  Biso   1.000  Zn
  Zn43     1.0000 0.50000  0.58333  0.25000  Biso   1.000  Zn
  Zn44     1.0000 0.50000  0.58333  0.75000  Biso   1.000  Zn
  Zn45     1.0000 0.83333  0.08333  0.25000  Biso   1.000  Zn
  Zn46     1.0000 0.83333  0.08333  0.75000  Biso   1.000  Zn
  Zn47     1.0000 0.83333  0.58333  0.25000  Biso   1.000  Zn
  Zn48     1.0000 0.83333  0.58333  0.75000  Biso   1.000  Zn
  O1       1.0000 0.00000  0.33333  0.42250  Biso   1.000  O
  O2       1.0000 0.00000  0.33333  0.92250  Biso   1.000  O
  O3       1.0000 0.00000  0.83333  0.42250  Biso   1.000  O
  O4       1.0000 0.00000  0.83333  0.92250  Biso   1.000  O
  O5       1.0000 0.33333  0.33333  0.42250  Biso   1.000  O
  O6       1.0000 0.33333  0.33333  0.92250  Biso   1.000  O
  O7       1.0000 0.33333  0.83333  0.42250  Biso   1.000  O
  O8       1.0000 0.33333  0.83333  0.92250  Biso   1.000  O
  O9       1.0000 0.66667  0.33333  0.42250  Biso   1.000  O
  O10      1.0000 0.66667  0.33333  0.92250  Biso   1.000  O
  O11      1.0000 0.66667  0.83333  0.42250  Biso   1.000  O
  O12      1.0000 0.66667  0.83333  0.92250  Biso   1.000  O
  O13      1.0000 0.00000  0.16667  0.17250  Biso   1.000  O
  O14      1.0000 0.00000  0.16667  0.67250  Biso   1.000  O
  O15      1.0000 0.00000  0.66667  0.17250  Biso   1.000  O
  O16      1.0000 0.00000  0.66667  0.67250  Biso   1.000  O
  O17      1.0000 0.33333  0.16667  0.17250  Biso   1.000  O
  O18      1.0000 0.33333  0.16667  0.67250  Biso   1.000  O
  O19      1.0000 0.33333  0.66667  0.17250  Biso   1.000  O
  O20      1.0000 0.33333  0.66667  0.67250  Biso   1.000  O
  O21      1.0000 0.66667  0.16667  0.17250  Biso   1.000  O
  O22      1.0000 0.66667  0.16667  0.67250  Biso   1.000  O
  O23      1.0000 0.66667  0.66667  0.17250  Biso   1.000  O
  O24      1.0000 0.66667  0.66667  0.67250  Biso   1.000  O
  O25      1.0000 0.16667  0.41667  0.17250  Biso   1.000  O
  O26      1.0000 0.16667  0.41667  0.67250  Biso   1.000  O
  O27      1.0000 0.16667  0.91667  0.17250  Biso   1.000  O
  O28      1.0000 0.16667  0.91667  0.67250  Biso   1.000  O
  O29      1.0000 0.50000  0.41667  0.17250  Biso   1.000  O
  O30      1.0000 0.50000  0.41667  0.67250  Biso   1.000  O
  O31      1.0000 0.50000  0.91667  0.17250  Biso   1.000  O
  O32      1.0000 0.50000  0.91667  0.67250  Biso   1.000  O
  O33      1.0000 0.83333  0.41667  0.17250  Biso   1.000  O
  O34      1.0000 0.83333  0.41667  0.67250  Biso   1.000  O
  O35      1.0000 0.83333  0.91667  0.17250  Biso   1.000  O
  O36      1.0000 0.83333  0.91667  0.67250  Biso   1.000  O
  O37      1.0000 0.16667  0.08333  0.42250  Biso   1.000  O
  O38      1.0000 0.16667  0.08333  0.92250  Biso   1.000  O
  O39      1.0000 0.16667  0.58333  0.42250  Biso   1.000  O
  O40      1.0000 0.16667  0.58333  0.92250  Biso   1.000  O
  O41      1.0000 0.50000  0.08333  0.42250  Biso   1.000  O
  O42      1.0000 0.50000  0.08333  0.92250  Biso   1.000  O
  O43      1.0000 0.50000  0.58333  0.42250  Biso   1.000  O
  O44      1.0000 0.50000  0.58333  0.92250  Biso   1.000  O
  O45      1.0000 0.83333  0.08333  0.42250  Biso   1.000  O
  O46      1.0000 0.83333  0.08333  0.92250  Biso   1.000  O
  O47      1.0000 0.83333  0.58333  0.42250  Biso   1.000  O
  O48      1.0000 0.83333  0.58333  0.92250  Biso   1.000  O
